30

O       2.8597806  -1.6510951   3.2485000
O       4.0115536   0.7292049   7.5798333
O       1.2630199   0.7292049   3.2485000
O       2.7485337  -1.4584098   7.5798333
O       1.3742668   0.9218902  11.9111667
O       1.4855137   0.7292049   7.5798333
O       0.0000000   3.3021902   3.2485000
O       1.4855137  -0.7292049   1.0828333
O       2.7485337   1.4584098   1.0828333
O       1.2630199  -0.7292049   9.7455000
O       1.3742668   3.8387098   5.4141667
O       2.6372868   3.1095049  11.9111667
O       0.1112469   1.6510951   5.4141667
O       2.8597806   1.6510951   9.7455000
O       4.0115536  -0.7292049   1.0828333
O       0.0000000   1.4584098   9.7455000
O       0.1112469   3.1095049  11.9111667
O       2.6372868   1.6510951   5.4141667
Al      0.0000000   0.0000000   4.5760970
Al      2.7485337   0.0000000   6.2522364
Al      0.0000000   0.0000000   1.9209030
Al      2.7485337   0.0000000   8.9074303
Al      1.3742668   2.3803000   0.2447636
Al      2.7485337   0.0000000  12.7492364
Al      2.7485337   0.0000000   2.4104303
Al      0.0000000   0.0000000  11.0730970
Al      1.3742668   2.3803000   6.7417636
Al      1.3742668   2.3803000  10.5835697
Al      1.3742668   2.3803000   4.0865697
Al      0.0000000   0.0000000   8.4179030
